<?xml version="1.0" encoding="UTF-8"?>

<!-- generated on Tue Jan 28 21:34:25 2014 by SUMO netconvert Version 0.19.0
<?xml version="1.0" encoding="UTF-8"?>

<configuration xmlns:xsi="http://www.w3.org/2001/XMLSchema-instance" xsi:noNamespaceSchemaLocation="http://sumo-sim.org/xsd/netconvertConfiguration.xsd">

    <input>
        <osm-files value="KarradaEast.osm"/>
    </input>

    <output>
        <output-file value="KarradaEast.net.xml"/>
        <output.street-names value="true"/>
        <output.original-names value="true"/>
    </output>

    <projection>
        <proj.utm value="true"/>
    </projection>

    <tls_building>
        <tls.guess value="true"/>
        <tls.join value="true"/>
    </tls_building>

</configuration>
-->

<net version="0.13" xmlns:xsi="http://www.w3.org/2001/XMLSchema-instance" xsi:noNamespaceSchemaLocation="http://sumo-sim.org/xsd/net_file.xsd">

    <location netOffset="-444499.47,-3683237.16" convBoundary="0.00,0.00,5442.79,2747.82" origBoundary="44.403942,33.286768,44.462287,33.311706" projParameter="+proj=utm +zone=38 +ellps=WGS84 +datum=WGS84 +units=m +no_defs"/>

    <edge id=":21568485_0" function="internal">
        <lane id=":21568485_0_0" index="0" speed="22.22" length="4.82" shape="2532.53,2119.39 2531.65,2118.19 2531.55,2117.27 2532.22,2116.64 2533.66,2116.29"/>
    </edge>
    <edge id=":21568583_0" function="internal">
        <lane id=":21568583_0_0" index="0" speed="25.00" length="6.36" shape="2839.06,1814.70 2840.66,1816.00 2842.13,1816.74 2843.48,1816.93 2844.71,1816.55"/>
    </edge>
    <edge id=":21568583_1" function="internal">
        <lane id=":21568583_1_0" index="0" speed="22.22" length="4.82" shape="2839.06,1814.70 2839.39,1816.15 2839.11,1817.03 2838.24,1817.34 2836.78,1817.08"/>
    </edge>
    <edge id=":21568583_2" function="internal">
        <lane id=":21568583_2_0" index="0" speed="25.00" length="5.37" shape="2836.27,1821.41 2837.47,1820.45 2837.96,1819.41 2837.73,1818.29 2836.78,1817.08"/>
    </edge>
    <edge id=":21568583_3" function="internal">
        <lane id=":21568583_3_0" index="0" speed="27.78" length="9.71" shape="2836.27,1821.41 2844.71,1816.55"/>
        <lane id=":21568583_3_1" index="1" speed="27.78" length="9.71" shape="2837.93,1824.26 2846.32,1819.43"/>
    </edge>
    <edge id=":21568587_0" function="internal">
        <lane id=":21568587_0_0" index="0" speed="25.00" length="8.96" shape="2937.95,1797.97 2934.98,1796.71 2932.56,1795.97 2930.70,1795.76 2929.41,1796.06"/>
    </edge>
    <edge id=":21568587_1" function="internal">
        <lane id=":21568587_1_0" index="0" speed="22.22" length="4.82" shape="2937.95,1797.97 2937.18,1796.70 2937.16,1795.78 2937.88,1795.21 2939.35,1794.98"/>
    </edge>
    <edge id=":21568587_2" function="internal">
        <lane id=":21568587_2_0" index="0" speed="25.00" length="6.15" shape="2939.25,1790.78 2937.69,1791.87 2937.19,1792.93 2937.74,1793.97 2939.35,1794.98"/>
    </edge>
    <edge id=":21568587_3" function="internal">
        <lane id=":21568587_3_0" index="0" speed="27.78" length="11.21" shape="2939.25,1790.78 2936.31,1792.32 2934.30,1793.38 2932.31,1794.45 2929.41,1796.06"/>
        <lane id=":21568587_3_1" index="1" speed="27.78" length="11.21" shape="2937.71,1787.86 2934.75,1789.42 2932.73,1790.48 2930.72,1791.56 2927.80,1793.18"/>
    </edge>
    <edge id=":21568588_0" function="internal">
        <lane id=":21568588_0_0" index="0" speed="25.00" length="12.10" shape="2988.70,1764.54 2985.98,1766.76 2984.74,1769.07 2984.09,1771.68 2983.11,1774.81"/>
    </edge>
    <edge id=":21568588_1" function="internal">
        <lane id=":21568588_1_0" index="0" speed="27.78" length="13.11" shape="2988.70,1764.54 2985.32,1766.52 2982.96,1767.80 2980.57,1769.02 2977.09,1770.82"/>
        <lane id=":21568588_1_1" index="1" speed="27.78" length="13.11" shape="2987.00,1761.71 2983.66,1763.66 2981.34,1764.92 2978.98,1766.13 2975.55,1767.90"/>
    </edge>
    <edge id=":21568588_3" function="internal">
        <lane id=":21568588_3_0" index="0" speed="25.00" length="7.11" shape="2980.06,1773.54 2980.74,1771.31 2980.46,1770.11 2979.25,1769.95 2977.09,1770.82"/>
    </edge>
    <edge id=":21568588_4" function="internal">
        <lane id=":21568588_4_0" index="0" speed="22.22" length="2.41" shape="2980.06,1773.54 2981.30,1772.71 2982.22,1772.65"/>
    </edge>
    <edge id=":21568588_5" function="internal">
        <lane id=":21568588_5_0" index="0" speed="22.22" length="2.41" shape="2982.22,1772.65 2982.82,1773.35 2983.11,1774.81"/>
    </edge>
    <edge id=":21568589_0" function="internal">
        <lane id=":21568589_0_0" index="0" speed="25.00" length="8.60" shape="3041.15,1739.74 3038.33,1738.50 3036.03,1737.79 3034.24,1737.60 3032.97,1737.95"/>
    </edge>
    <edge id=":21568589_1" function="internal">
        <lane id=":21568589_1_0" index="0" speed="22.22" length="4.82" shape="3041.15,1739.74 3040.40,1738.46 3040.39,1737.53 3041.13,1736.98 3042.60,1736.78"/>
    </edge>
    <edge id=":21568589_2" function="internal">
        <lane id=":21568589_2_0" index="0" speed="25.00" length="6.05" shape="3042.50,1732.56 3041.00,1733.65 3040.52,1734.72 3041.05,1735.76 3042.60,1736.78"/>
    </edge>
    <edge id=":21568589_3" function="internal">
        <lane id=":21568589_3_0" index="0" speed="27.78" length="11.01" shape="3042.50,1732.56 3039.65,1734.12 3037.70,1735.19 3035.76,1736.29 3032.97,1737.95"/>
        <lane id=":21568589_3_1" index="1" speed="27.78" length="11.01" shape="3040.90,1729.67 3038.02,1731.25 3036.05,1732.33 3034.10,1733.44 3031.27,1735.12"/>
    </edge>
    <edge id=":21568590_0" function="internal">
        <lane id=":21568590_0_0" index="0" speed="25.00" length="8.57" shape="3120.20,1696.11 3117.42,1694.84 3115.14,1694.09 3113.36,1693.87 3112.08,1694.17"/>
    </edge>
    <edge id=":21568590_1" function="internal">
        <lane id=":21568590_1_0" index="0" speed="22.22" length="4.82" shape="3120.20,1696.11 3119.47,1694.82 3119.48,1693.89 3120.22,1693.35 3121.69,1693.17"/>
    </edge>
    <edge id=":21568590_2" function="internal">
        <lane id=":21568590_2_0" index="0" speed="25.00" length="6.02" shape="3121.63,1688.94 3120.14,1690.02 3119.65,1691.09 3120.17,1692.13 3121.69,1693.17"/>
    </edge>
    <edge id=":21568590_3" function="internal">
        <lane id=":21568590_3_0" index="0" speed="27.78" length="10.89" shape="3121.63,1688.94 3118.79,1690.49 3116.85,1691.55 3114.91,1692.61 3112.08,1694.17"/>
        <lane id=":21568590_3_1" index="1" speed="27.78" length="10.89" shape="3120.04,1686.04 3117.20,1687.60 3115.26,1688.66 3113.32,1689.72 3110.49,1691.28"/>
    </edge>
    <edge id=":21568591_0" function="internal">
        <lane id=":21568591_0_0" index="0" speed="27.78" length="7.73" shape="3275.33,1610.39 3273.36,1609.06 3271.52,1608.34 3269.81,1608.24 3268.23,1608.76"/>
    </edge>
    <edge id=":21568591_1" function="internal">
        <lane id=":21568591_1_0" index="0" speed="27.78" length="11.90" shape="3277.40,1607.83 3274.36,1606.01 3271.85,1605.18 3269.73,1604.05 3267.83,1601.34"/>
    </edge>
    <edge id=":21568591_2" function="internal">
        <lane id=":21568591_2_0" index="0" speed="27.78" length="11.54" shape="3277.79,1603.51 3274.64,1604.65 3272.22,1604.69 3269.79,1604.73 3266.64,1605.86"/>
    </edge>
    <edge id=":21568591_3" function="internal">
        <lane id=":21568591_3_0" index="0" speed="27.78" length="6.21" shape="3276.20,1600.62 3274.35,1601.41 3272.84,1601.55 3271.66,1601.06 3270.81,1599.93"/>
    </edge>
    <edge id=":21568592_0" function="internal">
        <lane id=":21568592_0_0" index="0" speed="27.78" length="12.28" shape="3263.36,1591.85 3262.42,1588.53 3262.83,1586.06 3263.64,1583.49 3263.91,1579.86"/>
    </edge>
    <edge id=":21568592_1" function="internal">
        <lane id=":21568592_1_0" index="0" speed="27.78" length="7.16" shape="3266.34,1590.44 3265.98,1588.92 3266.36,1587.46 3267.49,1586.07 3269.36,1584.74"/>
    </edge>
    <edge id=":21568592_2" function="internal">
        <lane id=":21568592_2_0" index="0" speed="27.78" length="8.56" shape="3257.59,1587.60 3259.06,1586.43 3260.06,1584.78 3260.58,1582.67 3260.62,1580.09"/>
    </edge>
    <edge id=":21568592_3" function="internal">
        <lane id=":21568592_3_0" index="0" speed="27.78" length="12.27" shape="3259.18,1590.49 3262.02,1588.34 3263.47,1586.23 3264.91,1584.09 3267.71,1581.88"/>
    </edge>
    <edge id=":21568593_0" function="internal">
        <lane id=":21568593_0_0" index="0" speed="22.22" length="9.78" shape="3270.53,1554.84 3261.62,1550.79"/>
    </edge>
    <edge id=":21568593_1" function="internal">
        <lane id=":21568593_1_0" index="0" speed="25.00" length="4.76" shape="3270.53,1554.84 3269.26,1554.13 3268.50,1553.28 3268.24,1552.30 3268.50,1551.18"/>
    </edge>
    <edge id=":21568593_2" function="internal">
        <lane id=":21568593_2_0" index="0" speed="25.00" length="5.85" shape="3263.40,1555.80 3263.68,1554.13 3263.48,1552.74 3262.79,1551.63 3261.62,1550.79"/>
    </edge>
    <edge id=":21568593_3" function="internal">
        <lane id=":21568593_3_0" index="0" speed="27.78" length="6.07" shape="3263.40,1555.80 3265.47,1549.87"/>
        <lane id=":21568593_3_1" index="1" speed="27.78" length="6.07" shape="3266.57,1556.72 3268.50,1551.18"/>
    </edge>
    <edge id=":21568594_0" function="internal">
        <lane id=":21568594_0_0" index="0" speed="25.00" length="6.72" shape="3264.07,1545.47 3265.43,1545.82 3266.87,1545.58 3268.39,1544.76 3269.98,1543.35"/>
    </edge>
    <edge id=":21568594_1" function="internal">
        <lane id=":21568594_1_0" index="0" speed="22.22" length="10.09" shape="3264.07,1545.47 3266.75,1546.78 3268.60,1547.68 3270.45,1548.59 3273.13,1549.91"/>
    </edge>
    <edge id=":21568594_2" function="internal">
        <lane id=":21568594_2_0" index="0" speed="27.78" length="7.16" shape="3265.55,1549.69 3269.98,1543.35"/>
        <lane id=":21568594_2_1" index="1" speed="27.78" length="7.16" shape="3268.58,1550.99 3272.37,1545.62"/>
    </edge>
    <edge id=":21568594_4" function="internal">
        <lane id=":21568594_4_0" index="0" speed="25.00" length="5.37" shape="3268.58,1550.99 3269.31,1549.90 3270.31,1549.35 3271.58,1549.36 3273.13,1549.91"/>
    </edge>
    <edge id=":21568595_0" function="internal">
        <lane id=":21568595_0_0" index="0" speed="27.78" length="1.32" shape="3283.67,1529.00 3285.31,1527.87"/>
        <lane id=":21568595_0_1" index="1" speed="27.78" length="1.32" shape="3286.06,1531.28 3286.59,1530.91"/>
    </edge>
    <edge id=":21568596_0" function="internal">
        <lane id=":21568596_0_0" index="0" speed="25.00" length="5.23" shape="3311.83,1519.75 3313.05,1519.42 3314.06,1518.75 3314.85,1517.74 3315.43,1516.38"/>
    </edge>
    <edge id=":21568596_1" function="internal">
        <lane id=":21568596_1_0" index="0" speed="27.78" length="5.47" shape="3311.83,1519.75 3317.74,1520.10"/>
        <lane id=":21568596_1_1" index="1" speed="27.78" length="5.47" shape="3312.21,1523.03 3317.22,1523.36"/>
    </edge>
    <edge id=":21568597_0" function="internal">
        <lane id=":21568597_0_0" index="0" speed="25.00" length="4.84" shape="3332.16,1519.44 3331.99,1520.75 3332.20,1521.89 3332.78,1522.85 3333.75,1523.63"/>
    </edge>
    <edge id=":21568597_1" function="internal">
        <lane id=":21568597_1_0" index="0" speed="27.78" length="4.91" shape="3328.50,1521.84 3333.75,1523.63"/>
        <lane id=":21568597_1_1" index="1" speed="27.78" length="4.91" shape="3327.98,1525.09 3332.04,1526.46"/>
    </edge>
    <edge id=":21568598_0" function="internal">
        <lane id=":21568598_0_0" index="0" speed="27.78" length="9.21" shape="3345.70,1530.83 3348.18,1532.08 3350.47,1532.68 3352.54,1532.64 3354.41,1531.96"/>
    </edge>
    <edge id=":21568598_1" function="internal">
        <lane id=":21568598_1_0" index="0" speed="27.78" length="12.64" shape="3343.99,1533.66 3347.46,1535.13 3350.20,1535.66 3352.59,1536.55 3355.03,1539.11"/>
    </edge>
    <edge id=":21568598_2" function="internal">
        <lane id=":21568598_2_0" index="0" speed="27.78" length="12.62" shape="3343.95,1537.94 3347.35,1536.57 3349.98,1536.37 3352.61,1536.18 3356.03,1534.84"/>
    </edge>
    <edge id=":21568598_3" function="internal">
        <lane id=":21568598_3_0" index="0" speed="27.78" length="7.43" shape="3345.60,1540.80 3347.80,1539.78 3349.64,1539.47 3351.14,1539.86 3352.29,1540.95"/>
    </edge>
    <edge id=":21568599_0" function="internal">
        <lane id=":21568599_0_0" index="0" speed="27.78" length="7.12" shape="3368.14,1553.88 3366.94,1554.86 3366.20,1556.24 3365.92,1558.02 3366.11,1560.21"/>
    </edge>
    <edge id=":21568599_1" function="internal">
        <lane id=":21568599_1_0" index="0" speed="27.78" length="11.16" shape="3366.57,1550.98 3364.02,1552.94 3362.75,1554.92 3361.48,1556.91 3358.94,1558.90"/>
    </edge>
    <edge id=":21568599_2" function="internal">
        <lane id=":21568599_2_0" index="0" speed="27.78" length="11.70" shape="3361.98,1549.42 3363.33,1552.40 3363.25,1554.77 3362.76,1557.30 3362.86,1560.78"/>
    </edge>
    <edge id=":21568599_3" function="internal">
        <lane id=":21568599_3_0" index="0" speed="27.78" length="5.91" shape="3359.25,1551.27 3359.81,1552.57 3359.68,1553.80 3358.86,1554.94 3357.35,1556.01"/>
    </edge>
    <edge id=":21568601_0" function="internal">
        <lane id=":21568601_0_0" index="0" speed="25.00" length="6.25" shape="3365.50,1590.74 3365.27,1592.66 3365.50,1594.20 3366.19,1595.38 3367.34,1596.18"/>
    </edge>
    <edge id=":21568601_1" function="internal">
        <lane id=":21568601_1_0" index="0" speed="27.78" length="6.42" shape="3365.50,1590.74 3363.43,1597.23"/>
        <lane id=":21568601_1_1" index="1" speed="27.78" length="6.42" shape="3362.28,1590.04 3360.47,1595.78"/>
    </edge>
    <edge id=":21568601_3" function="internal">
        <lane id=":21568601_3_0" index="0" speed="22.22" length="9.95" shape="3358.34,1591.93 3367.34,1596.18"/>
    </edge>
    <edge id=":21568601_4" function="internal">
        <lane id=":21568601_4_0" index="0" speed="25.00" length="4.96" shape="3358.34,1591.93 3359.68,1592.77 3360.48,1593.69 3360.75,1594.70 3360.47,1595.78"/>
    </edge>
    <edge id=":21568602_0" function="internal">
        <lane id=":21568602_0_0" index="0" speed="25.00" length="6.35" shape="3364.95,1601.34 3363.54,1601.00 3362.15,1601.23 3360.79,1602.02 3359.44,1603.38"/>
    </edge>
    <edge id=":21568602_1" function="internal">
        <lane id=":21568602_1_0" index="0" speed="22.22" length="9.94" shape="3364.95,1601.34 3356.00,1597.02"/>
    </edge>
    <edge id=":21568602_2" function="internal">
        <lane id=":21568602_2_0" index="0" speed="27.78" length="6.76" shape="3363.35,1597.41 3359.44,1603.38"/>
        <lane id=":21568602_2_1" index="1" speed="27.78" length="6.76" shape="3360.38,1595.96 3356.88,1601.31"/>
    </edge>
    <edge id=":21568602_4" function="internal">
        <lane id=":21568602_4_0" index="0" speed="25.00" length="5.17" shape="3360.38,1595.96 3359.62,1597.03 3358.63,1597.57 3357.43,1597.56 3356.00,1597.02"/>
    </edge>
    <edge id=":21568604_0" function="internal">
        <lane id=":21568604_0_0" index="0" speed="25.00" length="5.12" shape="3312.30,1628.37 3307.96,1631.09"/>
    </edge>
    <edge id=":21568604_1" function="internal">
        <lane id=":21568604_1_0" index="0" speed="27.78" length="4.74" shape="3311.65,1625.13 3306.82,1627.00"/>
        <lane id=":21568604_1_1" index="1" speed="27.78" length="4.74" shape="3311.65,1625.13 3307.56,1623.78"/>
    </edge>
    <edge id=":21568605_0" function="internal">
        <lane id=":21568605_0_0" index="0" speed="27.78" length="5.06" shape="3294.72,1624.20 3289.44,1621.80"/>
        <lane id=":21568605_0_1" index="1" speed="27.78" length="5.06" shape="3295.46,1620.99 3291.51,1619.23"/>
    </edge>
    <edge id=":21568605_2" function="internal">
        <lane id=":21568605_2_0" index="0" speed="25.00" length="5.18" shape="3290.95,1626.43 3291.15,1625.10 3290.96,1623.88 3290.39,1622.78 3289.44,1621.80"/>
    </edge>
    <edge id=":21568606_0" function="internal">
        <lane id=":21568606_0_0" index="0" speed="25.00" length="5.66" shape="3010.49,1719.36 3011.68,1720.61 3012.89,1721.30 3014.11,1721.44 3015.36,1721.03"/>
    </edge>
    <edge id=":21568606_1" function="internal">
        <lane id=":21568606_1_0" index="0" speed="22.22" length="4.82" shape="3010.49,1719.36 3010.60,1720.85 3010.19,1721.68 3009.29,1721.86 3007.88,1721.38"/>
    </edge>
    <edge id=":21568606_2" function="internal">
        <lane id=":21568606_2_0" index="0" speed="25.00" length="5.18" shape="3007.00,1725.67 3008.15,1724.79 3008.68,1723.78 3008.59,1722.64 3007.88,1721.38"/>
    </edge>
    <edge id=":21568606_3" function="internal">
        <lane id=":21568606_3_0" index="0" speed="27.78" length="9.55" shape="3007.00,1725.67 3015.36,1721.03"/>
        <lane id=":21568606_3_1" index="1" speed="27.78" length="9.55" shape="3008.61,1728.55 3016.95,1723.92"/>
    </edge>
    <edge id=":21568612_0" function="internal">
        <lane id=":21568612_0_0" index="0" speed="25.00" length="8.73" shape="3431.16,1526.35 3428.28,1525.10 3425.94,1524.37 3424.13,1524.15 3422.84,1524.44"/>
    </edge>
    <edge id=":21568612_1" function="internal">
        <lane id=":21568612_1_0" index="0" speed="22.22" length="4.82" shape="3431.16,1526.35 3430.40,1525.07 3430.38,1524.15 3431.11,1523.58 3432.58,1523.37"/>
    </edge>
    <edge id=":21568612_2" function="internal">
        <lane id=":21568612_2_0" index="0" speed="25.00" length="6.07" shape="3432.46,1519.15 3430.96,1520.25 3430.48,1521.32 3431.02,1522.36 3432.58,1523.37"/>
    </edge>
    <edge id=":21568612_3" function="internal">
        <lane id=":21568612_3_0" index="0" speed="27.78" length="10.95" shape="3432.46,1519.15 3429.61,1520.74 3427.66,1521.82 3425.71,1522.89 3422.84,1524.44"/>
        <lane id=":21568612_3_1" index="1" speed="27.78" length="10.95" shape="3430.86,1516.27 3428.02,1517.84 3426.08,1518.92 3424.13,1519.99 3421.28,1521.53"/>
    </edge>
    <edge id=":21568614_0" function="internal">
        <lane id=":21568614_0_0" index="0" speed="25.00" length="8.82" shape="3521.87,1476.20 3518.97,1474.94 3516.60,1474.19 3514.77,1473.97 3513.48,1474.27"/>
    </edge>
    <edge id=":21568614_1" function="internal">
        <lane id=":21568614_1_0" index="0" speed="22.22" length="4.82" shape="3521.87,1476.20 3521.12,1474.92 3521.10,1474.00 3521.83,1473.44 3523.30,1473.23"/>
    </edge>
    <edge id=":21568614_2" function="internal">
        <lane id=":21568614_2_0" index="0" speed="25.00" length="6.11" shape="3523.21,1469.02 3521.68,1470.11 3521.18,1471.17 3521.73,1472.21 3523.30,1473.23"/>
    </edge>
    <edge id=":21568614_3" function="internal">
        <lane id=":21568614_3_0" index="0" speed="27.78" length="11.09" shape="3523.21,1469.02 3520.32,1470.56 3518.33,1471.62 3516.36,1472.69 3513.48,1474.27"/>
        <lane id=":21568614_3_1" index="1" speed="27.78" length="11.09" shape="3521.66,1466.11 3518.75,1467.66 3516.76,1468.72 3514.77,1469.80 3511.88,1471.39"/>
    </edge>
    <edge id=":21568616_0" function="internal">
        <lane id=":21568616_0_0" index="0" speed="25.00" length="8.75" shape="3481.56,1453.72 3484.45,1454.94 3486.80,1455.66 3488.62,1455.87 3489.91,1455.58"/>
    </edge>
    <edge id=":21568616_1" function="internal">
        <lane id=":21568616_1_0" index="0" speed="22.22" length="4.82" shape="3481.56,1453.72 3482.33,1454.99 3482.35,1455.91 3481.63,1456.48 3480.16,1456.71"/>
    </edge>
    <edge id=":21568616_2" function="internal">
        <lane id=":21568616_2_0" index="0" speed="25.00" length="6.07" shape="3480.32,1460.92 3481.81,1459.81 3482.28,1458.74 3481.73,1457.70 3480.16,1456.71"/>
    </edge>
    <edge id=":21568616_3" function="internal">
        <lane id=":21568616_3_0" index="0" speed="27.78" length="10.95" shape="3480.32,1460.92 3483.15,1459.32 3485.09,1458.22 3487.04,1457.13 3489.91,1455.58"/>
        <lane id=":21568616_3_1" index="1" speed="27.78" length="10.95" shape="3481.94,1463.80 3484.76,1462.20 3486.69,1461.11 3488.63,1460.03 3491.47,1458.48"/>
    </edge>
    <edge id=":21568618_0" function="internal">
        <lane id=":21568618_0_0" index="0" speed="25.00" length="9.02" shape="3577.88,1401.48 3580.90,1402.72 3583.34,1403.45 3585.21,1403.68 3586.51,1403.40"/>
    </edge>
    <edge id=":21568618_1" function="internal">
        <lane id=":21568618_1_0" index="0" speed="22.22" length="4.82" shape="3577.88,1401.48 3578.67,1402.74 3578.71,1403.66 3577.99,1404.25 3576.52,1404.49"/>
    </edge>
    <edge id=":21568618_2" function="internal">
        <lane id=":21568618_2_0" index="0" speed="25.00" length="6.16" shape="3576.67,1408.68 3578.22,1407.58 3578.71,1406.51 3578.15,1405.48 3576.52,1404.49"/>
    </edge>
    <edge id=":21568618_3" function="internal">
        <lane id=":21568618_3_0" index="0" speed="27.78" length="11.15" shape="3576.67,1408.68 3579.59,1407.11 3581.58,1406.03 3583.58,1404.95 3586.51,1403.40"/>
        <lane id=":21568618_3_1" index="1" speed="27.78" length="11.15" shape="3578.24,1411.59 3581.15,1410.01 3583.14,1408.94 3585.13,1407.87 3588.05,1406.31"/>
    </edge>
    <edge id=":21568620_0" function="internal">
        <lane id=":21568620_0_0" index="0" speed="25.00" length="8.50" shape="3621.13,1422.91 3618.36,1421.67 3616.09,1420.95 3614.32,1420.73 3613.05,1421.02"/>
    </edge>
    <edge id=":21568620_1" function="internal">
        <lane id=":21568620_1_0" index="0" speed="22.22" length="4.82" shape="3621.13,1422.91 3620.39,1421.62 3620.38,1420.70 3621.12,1420.15 3622.59,1419.95"/>
    </edge>
    <edge id=":21568620_2" function="internal">
        <lane id=":21568620_2_0" index="0" speed="25.00" length="5.99" shape="3622.46,1415.72 3621.01,1416.83 3620.55,1417.90 3621.07,1418.94 3622.59,1419.95"/>
    </edge>
    <edge id=":21568620_3" function="internal">
        <lane id=":21568620_3_0" index="0" speed="27.78" length="10.75" shape="3622.46,1415.72 3619.68,1417.33 3617.79,1418.43 3615.87,1419.50 3613.05,1421.02"/>
        <lane id=":21568620_3_1" index="1" speed="27.78" length="10.75" shape="3620.81,1412.86 3618.06,1414.45 3616.18,1415.54 3614.29,1416.60 3611.49,1418.11"/>
    </edge>
    <edge id=":21568621_0" function="internal">
        <lane id=":21568621_0_0" index="0" speed="25.00" length="8.94" shape="3675.58,1349.69 3678.55,1350.95 3680.96,1351.68 3682.81,1351.89 3684.10,1351.58"/>
    </edge>
    <edge id=":21568621_1" function="internal">
        <lane id=":21568621_1_0" index="0" speed="22.22" length="4.82" shape="3675.58,1349.69 3676.35,1350.96 3676.38,1351.89 3675.65,1352.46 3674.18,1352.68"/>
    </edge>
    <edge id=":21568621_2" function="internal">
        <lane id=":21568621_2_0" index="0" speed="25.00" length="6.15" shape="3674.29,1356.88 3675.84,1355.79 3676.35,1354.73 3675.79,1353.69 3674.18,1352.68"/>
    </edge>
    <edge id=":21568621_3" function="internal">
        <lane id=":21568621_3_0" index="0" speed="27.78" length="11.21" shape="3674.29,1356.88 3677.22,1355.34 3679.23,1354.29 3681.22,1353.20 3684.10,1351.58"/>
        <lane id=":21568621_3_1" index="1" speed="27.78" length="11.21" shape="3675.83,1359.80 3678.79,1358.24 3680.82,1357.18 3682.82,1356.09 3685.74,1354.45"/>
    </edge>
    <edge id=":21568622_0" function="internal">
        <lane id=":21568622_0_0" index="0" speed="25.00" length="8.63" shape="3711.96,1370.70 3709.12,1369.49 3706.80,1368.78 3705.01,1368.59 3703.73,1368.92"/>
    </edge>
    <edge id=":21568622_1" function="internal">
        <lane id=":21568622_1_0" index="0" speed="22.22" length="4.82" shape="3711.96,1370.70 3711.20,1369.43 3711.18,1368.51 3711.91,1367.94 3713.38,1367.72"/>
    </edge>
    <edge id=":21568622_2" function="internal">
        <lane id=":21568622_2_0" index="0" speed="25.00" length="6.04" shape="3713.23,1363.50 3711.75,1364.61 3711.28,1365.69 3711.82,1366.72 3713.38,1367.72"/>
    </edge>
    <edge id=":21568622_3" function="internal">
        <lane id=":21568622_3_0" index="0" speed="27.78" length="10.94" shape="3713.23,1363.50 3710.40,1365.11 3708.47,1366.20 3706.55,1367.30 3703.73,1368.92"/>
        <lane id=":21568622_3_1" index="1" speed="27.78" length="10.94" shape="3711.60,1360.63 3708.77,1362.24 3706.83,1363.34 3704.90,1364.44 3702.09,1366.06"/>
    </edge>
    <edge id=":21568623_0" function="internal">
        <lane id=":21568623_0_0" index="0" speed="25.00" length="8.74" shape="3764.93,1299.10 3767.81,1300.33 3770.17,1301.04 3771.98,1301.26 3773.26,1300.97"/>
    </edge>
    <edge id=":21568623_1" function="internal">
        <lane id=":21568623_1_0" index="0" speed="22.22" length="4.82" shape="3764.93,1299.10 3765.70,1300.38 3765.72,1301.30 3765.00,1301.87 3763.53,1302.09"/>
    </edge>
    <edge id=":21568623_2" function="internal">
        <lane id=":21568623_2_0" index="0" speed="25.00" length="6.06" shape="3763.70,1306.31 3765.19,1305.20 3765.65,1304.12 3765.10,1303.09 3763.53,1302.09"/>
    </edge>
    <edge id=":21568623_3" function="internal">
        <lane id=":21568623_3_0" index="0" speed="27.78" length="10.91" shape="3763.70,1306.31 3766.52,1304.70 3768.45,1303.59 3770.40,1302.51 3773.26,1300.97"/>
        <lane id=":21568623_3_1" index="1" speed="27.78" length="10.91" shape="3765.33,1309.18 3768.13,1307.58 3770.05,1306.48 3771.98,1305.41 3774.82,1303.88"/>
    </edge>
    <edge id=":21568624_0" function="internal">
        <lane id=":21568624_0_0" index="0" speed="25.00" length="6.95" shape="3818.28,1271.47 3820.17,1272.84 3821.84,1273.64 3823.30,1273.86 3824.54,1273.52"/>
    </edge>
    <edge id=":21568624_1" function="internal">
        <lane id=":21568624_1_0" index="0" speed="22.22" length="4.82" shape="3818.28,1271.47 3818.70,1272.89 3818.49,1273.79 3817.65,1274.16 3816.17,1274.00"/>
    </edge>
    <edge id=":21568624_2" function="internal">
        <lane id=":21568624_2_0" index="0" speed="25.00" length="5.55" shape="3815.73,1278.31 3817.04,1277.35 3817.55,1276.32 3817.26,1275.20 3816.17,1274.00"/>
    </edge>
    <edge id=":21568624_3" function="internal">
        <lane id=":21568624_3_0" index="0" speed="27.78" length="10.07" shape="3815.73,1278.31 3818.35,1276.91 3820.15,1275.95 3821.94,1274.97 3824.54,1273.52"/>
        <lane id=":21568624_3_1" index="1" speed="27.78" length="10.07" shape="3817.28,1281.22 3819.93,1279.81 3821.74,1278.84 3823.54,1277.86 3826.15,1276.39"/>
    </edge>
    <edge id=":21568625_0" function="internal">
        <lane id=":21568625_0_0" index="0" speed="25.00" length="7.04" shape="3842.11,1295.90 3840.17,1294.54 3838.46,1293.74 3836.98,1293.52 3835.74,1293.88"/>
    </edge>
    <edge id=":21568625_1" function="internal">
        <lane id=":21568625_1_0" index="0" speed="22.22" length="4.82" shape="3842.11,1295.90 3841.66,1294.48 3841.85,1293.58 3842.69,1293.19 3844.17,1293.32"/>
    </edge>
    <edge id=":21568625_2" function="internal">
        <lane id=":21568625_2_0" index="0" speed="25.00" length="5.57" shape="3844.56,1289.02 3843.24,1289.98 3842.74,1291.02 3843.05,1292.14 3844.17,1293.32"/>
    </edge>
    <edge id=":21568625_3" function="internal">
        <lane id=":21568625_3_0" index="0" speed="27.78" length="10.10" shape="3844.56,1289.02 3841.93,1290.44 3840.13,1291.41 3838.34,1292.41 3835.74,1293.88"/>
        <lane id=":21568625_3_1" index="1" speed="27.78" length="10.10" shape="3842.98,1286.11 3840.34,1287.55 3838.53,1288.53 3836.73,1289.53 3834.11,1291.01"/>
    </edge>
    <edge id=":21568627_0" function="internal">
        <lane id=":21568627_0_0" index="0" speed="25.00" length="7.01" shape="3921.72,1252.71 3919.80,1251.35 3918.10,1250.54 3916.63,1250.31 3915.39,1250.64"/>
    </edge>
    <edge id=":21568627_1" function="internal">
        <lane id=":21568627_1_0" index="0" speed="22.22" length="4.82" shape="3921.72,1252.71 3921.28,1251.29 3921.47,1250.39 3922.31,1250.01 3923.80,1250.15"/>
    </edge>
    <edge id=":21568627_2" function="internal">
        <lane id=":21568627_2_0" index="0" speed="25.00" length="5.56" shape="3924.19,1245.84 3922.88,1246.81 3922.38,1247.85 3922.69,1248.96 3923.80,1250.15"/>
    </edge>
    <edge id=":21568627_3" function="internal">
        <lane id=":21568627_3_0" index="0" speed="27.78" length="10.01" shape="3924.19,1245.84 3921.58,1247.27 3919.79,1248.24 3918.00,1249.22 3915.39,1250.64"/>
        <lane id=":21568627_3_1" index="1" speed="27.78" length="10.01" shape="3922.60,1242.94 3919.99,1244.37 3918.21,1245.35 3916.43,1246.32 3913.82,1247.74"/>
    </edge>
    <edge id=":21568628_0" function="internal">
        <lane id=":21568628_0_0" index="0" speed="25.00" length="6.95" shape="3896.89,1227.38 3898.80,1228.72 3900.48,1229.49 3901.94,1229.70 3903.18,1229.35"/>
    </edge>
    <edge id=":21568628_1" function="internal">
        <lane id=":21568628_1_0" index="0" speed="22.22" length="4.82" shape="3896.89,1227.38 3897.34,1228.80 3897.14,1229.70 3896.30,1230.08 3894.82,1229.95"/>
    </edge>
    <edge id=":21568628_2" function="internal">
        <lane id=":21568628_2_0" index="0" speed="25.00" length="5.54" shape="3894.46,1234.26 3895.75,1233.28 3896.24,1232.24 3895.93,1231.13 3894.82,1229.95"/>
    </edge>
    <edge id=":21568628_3" function="internal">
        <lane id=":21568628_3_0" index="0" speed="27.78" length="10.01" shape="3894.46,1234.26 3897.05,1232.81 3898.83,1231.81 3900.60,1230.81 3903.18,1229.35"/>
        <lane id=":21568628_3_1" index="1" speed="27.78" length="10.01" shape="3896.08,1237.14 3898.67,1235.68 3900.45,1234.69 3902.22,1233.69 3904.81,1232.22"/>
    </edge>
    <edge id=":21568629_0" function="internal">
        <lane id=":21568629_0_0" index="0" speed="25.00" length="6.76" shape="4002.15,1208.43 4000.33,1207.12 3998.71,1206.36 3997.28,1206.15 3996.05,1206.50"/>
    </edge>
    <edge id=":21568629_1" function="internal">